=======================================================================
TROPOMI DATA DIRECTORY:    /n/seasasfs02/hnesser/TROPOMI/downloads_14_14/
GEOS-CHEM DATA DIRECTORY:  /n/holyscratch01/jacob_lab/hnesser/TROPOMI_inversion/jacobian_runs/TROPOMI_inversion_0000/OutputDir/
OUTPUT DATA DIRECTORY:     /n/holyscratch01/jacob_lab/hnesser/TROPOMI_inversion/jacobian_runs/TROPOMI_inversion_0000/ProcessedDir/
LONGITUDE RANGE:           -130 -60 0.25
LATITUDE RANGE:            9.75 60 0.3125
YEAR:                      2019
MONTH:                     3
=======================================================================
Activating python environment
Activated /n/home04/hnesser/python/miniconda/envs/TROPOMI_inversion
Initiating script
/var/slurmd/spool/slurmd/job15026140/slurm_script: line 60: 11014 Killed                  ${python_dir}/python/GC_to_TROPOMI.py $TROPOMI_DATA_DIR $GC_DATA_DIR $OUTPUT_DIR $LONS $LATS $BUFFER $YEAR $MONTH
slurmstepd: error: Detected 1 oom-kill event(s) in StepId=15026140.batch cgroup. Some of your processes may have been killed by the cgroup out-of-memory handler.
