=======================================================================
TROPOMI DATA DIRECTORY:    /n/seasasfs02/CH4_inversion/InputData/Obs/TROPOMI/
GEOS-CHEM DATA DIRECTORY:  /n/holyscratch01/jacob_lab/hnesser/TROPOMI_inversion/jacobian_runs/TROPOMI_inversion_0000/OutputDir/
OUTPUT DATA DIRECTORY:     /n/holyscratch01/jacob_lab/hnesser/TROPOMI_inversion/jacobian_runs/TROPOMI_inversion_0000/ProcessedDir/
LONGITUDE RANGE:           -130 -60 0.3125
LATITUDE RANGE:            9.75 60 0.25
YEAR:                      2019
MONTH:                     12
=======================================================================
Activating python environment
Activated /n/home04/hnesser/python/miniconda/envs/TROPOMI_inversion
Initiating script
findfont: Font family ['sans-serif'] not found. Falling back to DejaVu Sans.
Applying TROPOMI operator for 2019-12

Number of dates:  31
=========== 20191201 ===========
Processing 18679 Observations
================================
GEOS-Chem Data does not contain 24 hours on 20191201.
Filling data with the first hour.
=========== 20191202 ===========
Processing 10873 Observations
================================
=========== 20191203 ===========
Processing 14886 Observations
================================
=========== 20191204 ===========
Processing 7490 Observations
================================
=========== 20191205 ===========
Processing 6865 Observations
================================
=========== 20191206 ===========
Processing 2295 Observations
================================
=========== 20191207 ===========
Processing 6738 Observations
================================
=========== 20191208 ===========
Processing 2982 Observations
================================
=========== 20191209 ===========
Processing 5876 Observations
================================
=========== 20191210 ===========
Processing 9447 Observations
================================
=========== 20191211 ===========
Processing 18156 Observations
================================
